INIT MASTER(S)
NASTRAN SYSTEM(319)=1
ID model,FEMAP
SOL AESTAT
CEND
  TITLE = static_LD
  ECHO = NONE
  DISPLACEMENT(PRINT) = ALL
  APRES = All
  AEROF = All
  SPC = 9
  SUBCASE = 1 $ 11 m/s
    TRIM = 1
  SUBCASE = 2 $ 13 m/s
    TRIM = 2
  SUBCASE = 3 $ 15 m/s
    TRIM = 3
  SUBCASE = 4 $ 17 m/s
    TRIM = 4
  SUBCASE = 5 $ 19 m/s
    TRIM = 5
  SUBCASE = 6 $ 22 m/s
    TRIM = 6
BEGIN BULK
INCLUDE GENEL_ala_ud_dx.dat
INCLUDE GENEL_coda_ud_dx.dat
INCLUDE GENEL_ala_ud_sx.dat
INCLUDE GENEL_coda_ud_sx.dat
$ ***************************************************************************
$   Written by : Femap
$   Version    : 2021.2.1
$   Translator : MSC Nastran
$   From Model : D:\repositoriesgithub\Nuova cartella\Aeroelasticity-Project\model_ridotto.modfem
$   Date       : Sat Mar 16 15:26:33 2024
$   Output To  : D:\repositoriesgithub\Nuova cartella\Aeroelasticity-Project\
$ ***************************************************************************
$
PARAM,PRGPST,NO
PARAM,POST,-1
PARAM,OGEOM,NO
PARAM,AUTOSPC,YES
PARAM,GRDPNT,0
CORD2C         1       0      0.      0.      0.      0.      0.      1.+FEMAPC1
+FEMAPC1      1.      0.      1.        
CORD2S         2       0      0.      0.      0.      0.      0.      1.+FEMAPC2
+FEMAPC2      1.      0.      1.        
$ Femap Coordinate System 3 : reference globale
CORD2R         3       0   .1297      0.-2.472-3   .1297      0.-1.00247+       
+         -.8703      0.-2.472-3        
$ Femap Coordinate System 4 : Wing Ref
CORD2R         4       0   .0625    -.21      0.   .0625    -.21      1.+       
+         1.0625    -.21      0.        
$ Femap Coordinate System 7 : Tail Ref
CORD2R         7       0    1.18   -.132      0.    1.18   -.132      1.+       
+           2.18   -.132      0.        
$ Femap Coordinate System 1000 : Wing Ref
CORD2R      1000       0   .0625     .21      0.   .0625     .21      1.+       
+         1.0625     .21      0.        
$ Femap Coordinate System 2000 : Tail Ref
CORD2R      2000       0    1.18    .132      0.    1.18    .132      1.+       
+           2.18    .132      0.        
$ Femap Coordinate System 2002 : right_ail
CORD2R      2002       0   .1888   .8625      0.   .1888   .8625      1.+       
+         1.1888   .8625      0.        
$ Femap Coordinate System 2004 : right_rudder
CORD2R      2004       0    1.25    .132    .025    1.25   -.868    .025+       
+           2.25    .132    .025        
$ Femap Coordinate System 3000 : Wing Ref_left
CORD2R      3000       0   .0625    -.21      0.   .0625    -.21      1.+       
+         1.0625    -.21      0.        
$ Femap Coordinate System 4000 : Tail Ref_left
CORD2R      4000       0    1.18   -.132      0.    1.18   -.132      1.+       
+           2.18   -.132      0.        
$ Femap Coordinate System 4001 : Left_aileron
CORD2R      4001       0   .1888 -1.1225      0.   .1888 -1.1225      1.+       
+         -.8112 -1.1225      0.        
$ Femap Coordinate System 4002 : horiz_left
CORD2R      4002       0    1.25   -.132     .02    1.25   -.132    1.02+       
+           2.25   -.132     .02        
$ Femap Coordinate System 4003 : left_rudder
CORD2R      4003       0    1.25   -.132    .025    1.25  -1.132    .025+       
+           2.25   -.132    .025        
PARAM,AUNITS,.1019368
AESTAT         1   SIDES
AESTAT         2    ROLL
AESTAT         3     YAW
AESTAT         4   URDD2
AESTAT         5   URDD4
AESTAT         6   URDD6
$primo trim
TRIM           1.0323529 74.1125    ROLL      0.     YAW      0.      1.+       
+          URDD2      0.   URDD4      0.   URDD6      0.      EL      0.
$secondo trim
TRIM           2.0382353103.5125    ROLL      0.     YAW      0.      1.+  
+          URDD2      0.   URDD4      0.   URDD6      0.      EL      0.
$terzo trim
TRIM           30.044118137.8125    ROLL      0.     YAW      0.      1.+  
+          URDD2      0.   URDD4      0.   URDD6      0.      EL      0.
$quarto trim
TRIM           4     .05177.0125    ROLL      0.     YAW      0.      1.+  
+          URDD2      0.   URDD4      0.   URDD6      0.      EL      0.
$quinto trim
TRIM           50.055882221.1125    ROLL      0.     YAW      0.      1.+  
+          URDD2      0.   URDD4      0.   URDD6      0.      EL      0.
$sesto trim
TRIM           60.064706  296.45    ROLL      0.     YAW      0.      1.+  
+          URDD2      0.   URDD4      0.   URDD6      0.      EL      0.
AEROS          0       3    .236    2.25    .531       0       0
$ Femap Aero Control Surface 1 : ailerons
AESURF         1      RA    2002       2    4001       7             LDW+       
+           .037 .008433                                                
$ Femap Aero Control Surface 3 : rudder
AESURF         3      RU    2004       1    4003       6             LDW+       
+           .027 .002633                                                
$ Femap Aero Control Surface 6 : global_elevator
AESURF         6      EL    4002       5                             LDW+       
+           .029 .006172                                                
AELIST         1    2038    2039    2040    2048    2049    2050    2058+       
+           2059    2060    2068    2069    2070    2078    2079    2080+       
+           2088    2089    2090    2098    2099    2100    2108    2109+       
+           2110    2118    2119    2120    2128    2129    2130    2138+       
+           2139    2140    2148    2149    2150    2158    2159    2160+       
+           2168    2169    2170                                        
AELIST         2    5298    5299    5308    5309    5318    5319    5328+       
+           5329    5338    5339    5348    5349    5358    5359    5368+       
+           5369    5378    5379    5388    5389                        
AELIST         5   12119   12120   12121   12129   12130   12131   12139+       
+          12140   12141   12149   12150   12151   12159   12160   12161+       
+          12169   12170   12171   12179   12180   12181   12189   12190+       
+          12191   12199   12200   12201   12209   12210   12211   12219+       
+          12220   12221   12229   12230   12231   12239   12240   12241+       
+          12249   12250   12251   12259   12260   12261   12269   12270+       
+          12271   12279   12280   12281   12289   12290   12291        
AELIST         6   11039   11040   11041   11049   11050   11051   11059+       
+          11060   11061   11069   11070   11071   11079   11080   11081+       
+          11089   11090   11091   11099   11100   11101   11109   11110+       
+          11111   11119   11120   11121   11129   11130   11131   11139+       
+          11140   11141   11149   11150   11151   11159   11160   11161+       
+          11169   11170   11171                                        
AELIST         7   50299   50300   50309   50310   50319   50320   50329+       
+          50330   50339   50340   50349   50350   50359   50360   50369+       
+          50370   50379   50380   50389   50390                        
$ Femap Constraint Set 9 : LD_lock
SPC1           9     135      25
$ Femap Constraint Set 10 : LD_suport
SUPORT        25     246
$ Femap Property 16 : bar_coda
$ Femap PropShape 16 : 1,0,0.0055,0.1,0.,0.,0.,0.
$ Femap PropMethod 16 : 1,0,1,0.
$ Femap PropOrient 16 : 1,0,0.,1.,2.,3.,4.,-1.,0.,0.
PBAR          16       1  5.49-43.0347-72.0624-9      0.      0.        +       
+             0.      0.      0.      0.      0.      0.      0.      0.+       
+                             0.
$ Femap Material 1 : Balsa
MAT1           1  3.71+9             .26    150.      0.      0.        
GRID           1    1000      0.      0.      0.       0
GRID           2    1000      0.   .3275      0.       0
GRID           3    1000      0.   .6525      0.       0
GRID           4    1000      0.   .9125      0.       0
GRID          10       0     .25    .132      0.       0
GRID          11       0    1.18    .132      0.       0
GRID          12       0    1.23    .132     .02       0
GRID          13       0    1.23    .287     .02       0
GRID          14       0    1.23      0.     .02       0
GRID          15       0    1.23    .132    .198       0
GRID          25       0      0.      0.      0.       0
GRID         101    1000  -.0625      0.      0.       0
GRID         102    1000   .1735      0.      0.       0
GRID         103    1000  -.0625   .3275      0.       0
GRID         104    1000   .1735   .3275      0.       0
GRID         105    1000  -.0625   .6525      0.       0
GRID         106    1000   .1735   .6525      0.       0
GRID         107    1000  -.0625   .9125      0.       0
GRID         108    1000   .1735   .9125      0.       0
GRID         201       0    1.18    .132     .02       0
$ ... 30 like lines cut
CONM2          1       1    1000   .0269      0.      0.      0.                
CONM2          2       1    1000   .0175   .0418      0.      0.                
CONM2          3       2    1000   .0536      0.      0.      0.                
CONM2          4       2    1000   .0175   .0418      0.      0.                
CONM2          5       3    1000    .048      0.      0.      0.                
CONM2          6       3    1000   .0171   .0409      0.      0.                
CONM2          7       4    1000   .0213      0.      0.      0.                
CONM2          8       4    1000   .0207  .03251      0.      0.                
CONM2          9      25       0 .578348 .100367      0.-.024248        +       
+        .021679   1.2-5 .011463  1.47-4   1.7-5 .031867
RBE2          10       1  123456     101     102
RBE2          11       2  123456     103     104
RBE2          12       3  123456     105     106
RBE2          13       4  123456     107     108
CONM2         14      25       0    .164  -.1455   -.174      0.                
CONM2         15      25       0    .164  -.3555   -.174      0.                
CONM2         16      25       0    .087  -.4695   -.174      0.                
CONM2         17      25       0    .239 -.23475   -.174      0.                
CONM2         18    1001    1000   .0269      0.      0.      0.                
CONM2         19    1002    1000   .0536      0.      0.      0.                
CONM2         20    1003    1000    .048      0.      0.      0.                
CONM2         21    1004    1000   .0213      0.      0.      0.                
CONM2         22    1001    1000   .0175   .0418      0.      0.                
CONM2         23    1002    1000   .0175   .0418      0.      0.                
CONM2         24    1003    1000   .0171   .0409      0.      0.                
CONM2         25      25       0 .578348 .100367      0.-.024248        +       
+        .021679   1.2-5 .011463  1.47-4   1.7-5 .031867
CONM2         26      25       0    .164  -.1455    .174      0.                
CONM2         27      25       0    .164  -.3555    .174      0.                
CONM2         28      25       0    .087  -.4695    .174      0.                
CONM2         29      25       0    .239 -.23475    .174      0.                
RBE2          30      11  123456     201      12     202
RBE2          31      25  123456      10    1001    2000       1
CONM2         32      10       0    .164     .09      0.      0.                
CONM2         33      10       0    .164     .29      0.      0.                
CONM2         34      10       0  .09875      0.      0.      0.                
CONM2         35      11       0  .09875      0.      0.      0.                
RBE2          37      14  123456     208     207
RBE2          39      13  123456     205     206
RBE2          40      15  123456     203     204
CBAR          42      16      12      13     206                
CONM2         43      15    2000   .0185      0.      0.      0.                
CONM2         44      12    2000   .0185      0.      0.      0.                
CONM2         45      14    2000 .020467      0.      0.      0.                
CONM2         46      13    2000 .024034      0.      0.      0.                
CONM2         47      14    2000   7.5-4      0.      0.      0.                
CONM2         48      15    2000   .0015      0.      0.   -.089                
CBAR          49      16      12      15     204                
CONM2         50       3       0    .015      0.   .1175      0.                
CONM2         51      25       0    .484      0.      0.      0.                
CONM2         52      25       0     .17     .16      0.      0.                
CONM2         53    1004    1000   .0207  .03251      0.      0.                
RBE2          54    1001  123456    1101    1102
RBE2          55    1002  123456    1103    1104
RBE2          56    1003  123456    1105    1106
RBE2          57    1004  123456    1107    1108
CONM2         60    2000       0    .164     .09      0.      0.                
CONM2         61    2000       0    .164     .29      0.      0.                
CONM2         62    2000       0  .09875      0.      0.      0.                
CONM2         63    2001       0  .09875      0.      0.      0.                
RBE2          66    2001  123456    2002    2101    2102
RBE2          71    2005  123456    2104    2103
RBE2          72    2004  123456    2106    2105
CBAR          74      16    2002    2005    2102                
CBAR          75      16    2002    2004    2102                
CONM2         76    2002    2000   .0185      0.      0.      0.                
CONM2         77    2005    2000   .0185      0.      0.      0.                
CONM2         78      14    2000 .020467      0.      0.      0.                
CONM2         79    2004    2000 .024034      0.      0.      0.                
CONM2         80      14    2000   7.5-4      0.      0.      0.                
CONM2         81    2005    2000   .0015      0.      0.   -.089                
CONM2         82    1003       0    .015      0.  -.1175      0.                
CONM2         83      25       0    .484      0.      0.      0.                
CONM2         84      25       0     .17     .16      0.      0.                
CBAR          86      16      12      14      1.      0.      0.
CBAR          87      16      14    2002      1.      0.      0.
RBE2          88      10       1      11
RBE2          89    2000       1    2001
$ Femap Aero Property 1 : panel
PAERO1         1                                                        
$ Femap Aero Panel 2001 : vert_tail
CAERO1      2001       1       0      20      10                       1+       
+           1.18    .132    .025      .1    1.18    .132    .198      .1
$ Femap Aero Panel 5000 : wing panel
CAERO1      5000       1       0      40      10                       1+       
+             0.     .21      0.    .236      0.  1.1225      0.    .236
$ Femap Aero Panel 11002 : vert_tail_left
CAERO1     11002       1       0      20      10                       1+       
+           1.18   -.132    .198      .1    1.18   -.132    .025      .1
$ Femap Aero Panel 12002 : horizontal_global
CAERO1     12002       1       0      40      10                       1+       
+           1.18   -.287     .02      .1    1.18    .287     .02      .1
$ Femap Aero Panel 50001 : Left_wing
CAERO1     50001       1       0      40      10                       1+       
+             0.    -.21      0.    .236      0. -1.1225      0.    .236
SET1           3      12      15     201     202     203     204        
$ Femap Aero Spline 3 : v_tail_spline
SPLINE1        3    2001    2001    2200       3      0.     IPS    BOTH
SET1           1       1       2       3       4     101     102     103+       
+            104     105     106     107     108                        
$ Femap Aero Spline 4 : wing_spline
SPLINE1        4    5000    5000    5399       1      0.     IPS    BOTH
SET1           4    1001    1002    1003    1004    1101    1102    1103+       
+           1104    1105    1106    1107    1108                        
$ Femap Aero Spline 5 : left_wing_spline
SPLINE1        5   50001   50001   50400       4      0.     IPS    BOTH
SET1           5    2002    2005    2101    2102    2103    2104        
$ Femap Aero Spline 6 : vert_tail_left
SPLINE1        6   11002   11002   11201       5      0.     IPS    BOTH
SET1           6      12      13      14     201     202     205     206+       
+            207     208    2002    2004    2101    2102    2105    2106
$ Femap Aero Spline 7 : horizontal_global
SPLINE1        7   12002   12002   12401       6      0.     IPS    BOTH
ENDDATA
