INIT MASTER(S)
NASTRAN SYSTEM(319)=1
ID win,FEMAP
SOL AESTAT
CEND
  TITLE = static_aero_classic
  ECHO = NONE
  DISPLACEMENT(PRINT) = ALL
  SPCFORCE(PRINT) = ALL
  STRESS(PRINT,CORNER) = ALL
  APRES = All
  AEROF = All
  SPC = 1
  TRIM = 1
BEGIN BULK
$ ***************************************************************************
$   Written by : Femap
$   Version    : 2021.2.1
$   Translator : MSC Nastran
$   From Model : D:\repositoriesgithub\Nuova cartella\Aeroelasticity-Project\genel_aero_test\wingspar.modfem
$   Date       : Wed Feb 14 16:19:23 2024
$   Output To  : D:\repositoriesgithub\Nuova cartella\Aeroelasticity-Project\genel_aero_test\
$ ***************************************************************************
$
PARAM,PRGPST,NO
PARAM,POST,-1
PARAM,OGEOM,NO
PARAM,AUTOSPC,YES
PARAM,GRDPNT,0
CORD2C         1       0      0.      0.      0.      0.      0.      1.+FEMAPC1
+FEMAPC1      1.      0.      1.        
CORD2S         2       0      0.      0.      0.      0.      0.      1.+FEMAPC2
+FEMAPC2      1.      0.      1.        
$ Femap Coordinate System 3 : tail_ref
CORD2R         3       0      5.      0.      .5      5.      0.     1.5+       
+             6.      0.      .5        
PARAM,AUNITS,.101936
AESTAT         1  ANGLEA
AESTAT         2   PITCH
AESTAT         3   URDD3
AESTAT         4   URDD5
TRIM           1  .29412   6125.   PITCH      0.   URDD3     -1.      0.+       
+          URDD5      0.                                                
AEROS          0       0      1.      5.      5.       1       0
$ Femap Aero Control Surface 1 : tail
AESURF         1    tail       3       2                      1.     LDW+       
+             1.      2.                                                
AELIST         2    1001    1002    1003    1004    1005    1006    1007+       
+           1008    1009    1010    1011    1012    1013    1014    1015+       
+           1016    1017    1018    1019    1020                        
$ Femap Constraint Set 1 : pitch_plunge_clamp
SPC1           1    1246       1
$ Femap Constraint Set 2 : pitch_plunge_suport
SUPORT         1      35
$ Femap Property 1 : bar
$ Femap PropShape 1 : 5,0,0.3,0.,0.,0.,0.,0.
$ Femap PropMethod 1 : 5,0,1,0.3
$ Femap PropOrient 1 : 5,0,0.,1.,2.,3.,4.,-1.,0.,0.
PBAR           1       1 .282743.0063617.0063617.0127127      0.        +       
+             0.     -.3      .3      0.      0.      .3     -.3      0.+       
+       .8861758.8861758      0.
$ Femap Material 1 : metal
MAT1           1   7.+10             .33      0.      0.      0.        
GRID           1       0      0.      0.      0.       0
GRID           2       0      0.    1.25      0.       0
GRID           3       0      0.     2.5      0.       0
GRID           4       0      0.    3.75      0.       0
GRID           5       0      0.      5.      0.       0
GRID           6       0     -.5    1.25      0.       0
GRID           7       0     -.5     2.5      0.       0
GRID           8       0     -.5    3.75      0.       0
GRID           9       0     -.5      5.      0.       0
GRID          10       0     -.5      0.      0.       0
GRID          11       0      .5    1.25      0.       0
GRID          12       0      .5      0.      0.       0
GRID          13       0      .5     2.5      0.       0
GRID          14       0      .5    3.75      0.       0
GRID          15       0      .5      5.      0.       0
GRID          16       0      5.      0.      .5       0
GRID          17       0      5.      2.      .5       0
GRID          18       0     4.5      0.      .5       0
GRID          19       0     4.5      2.      .5       0
GRID          20       0     5.5      0.      .5       0
GRID          21       0     5.5      2.      .5       0
CBAR           1       1       1       2      1.      0.      0.
CBAR           2       1       2       3      1.      0.      0.
CBAR           3       1       3       4      1.      0.      0.
CBAR           4       1       4       5      1.      0.      0.
RBE2           5       1  123456      10      12      16
RBE2           6       2  123456       6      11
RBE2           7       3  123456       7      13
RBE2           8       4  123456       8      14
RBE2           9       5  123456       9      15
RBE2          10      17  123456      19      21
RBE2          11      16  123456      18      20
CBAR          12       1      16      17      1.      0.      0.
CONM2         13       1       0    800.      0.      0.      0.                
CONM2         14       2       0    800.      0.      0.      0.                
CONM2         15       3       0    800.      0.      0.      0.                
CONM2         16       4       0    800.      0.      0.      0.                
CONM2         17       5       0    800.      0.      0.      0.                
CONM2         18      16       0    800.      0.      0.      0.                
CONM2         19      17       0    800.      0.      0.      0.                
$ Femap Aero Property 1 : panel
PAERO1         1                                                        
$ Femap Aero Panel 1 : wing
CAERO1         1       1       0      10       4                       1+       
+            -.5      0.      0.      1.     -.5      5.      0.      1.
$ Femap Aero Panel 1001 : tail
CAERO1      1001       1       0       5       4                       1+       
+            4.5      0.      .5      1.     4.5      2.      .5      1.
SET1           1       1       2       3       4       5       6       7+       
+              8       9      10      11      12      13      14      15
$ Femap Aero Spline 1 : wingspline
SPLINE1        1       1       1      40       1      0.     IPS    BOTH
SET1           2      16      17      18      19      20      21        
$ Femap Aero Spline 2 : tailspline
SPLINE1        2    1001    1001    1020       2      0.     IPS    BOTH
ENDDATA
