INIT MASTER(S)
NASTRAN OP2NEW=0,SYSTEM(319)=1
ID genelsimple,FEMAP
SOL SESTATIC
CEND
  TITLE = static
  ECHO = NONE
  DISPLACEMENT(PRINT) = ALL
  SPCFORCE(PRINT) = ALL
  OLOAD(PRINT) = ALL
  FORCE(PRINT,CORNER) = ALL
  STRESS(PRINT,CORNER) = ALL
  SPC = 1
  LOAD = 1
BEGIN BULK
$ ***************************************************************************
$   Written by : Femap
$   Version    : 2021.2.1
$   Translator : MSC Nastran
$   From Model : D:\repositoriesgithub\Nuova cartella\Aeroelasticity-Project\genelsimple.modfem
$   Date       : Mon Feb 12 16:11:22 2024
$   Output To  : D:\repositoriesgithub\Nuova cartella\Aeroelasticity-Project\
$ ***************************************************************************
$
PARAM,PRGPST,NO
PARAM,POST,-1
PARAM,OGEOM,NO
PARAM,AUTOSPC,YES
PARAM,K6ROT,100.
PARAM,GRDPNT,0
CORD2C         1       0      0.      0.      0.      0.      0.      1.+FEMAPC1
+FEMAPC1      1.      0.      1.        
CORD2S         2       0      0.      0.      0.      0.      0.      1.+FEMAPC2
+FEMAPC2      1.      0.      1.        
$ Femap Load Set 1 : load1
FORCE          1       1       0      1.      0.      0.      1.
$ Femap Constraint Set 1 : clamp
SPC1           1   12456       1
SPC1           1  123456       2
$ Femap Property 1 : bar
$ Femap PropShape 1 : 1,0,0.1,0.1,0.,0.,0.,0.
$ Femap PropMethod 1 : 1,0,1,0.3
$ Femap PropOrient 1 : 1,0,0.,1.,2.,3.,4.,-1.,0.,0.
PBAR           1       1     .018.3333-68.3333-61.4072-5      0.        +       
+           -.05    -.05     .05    -.05     .05     .05    -.05     .05+       
+        .850116 .850116      0.
$ Femap Material 1 : metal
MAT1           1   7.+10             .33      0.      0.      0.        
GRID           1       0      0.      1.      0.       0
GRID           2       0      0.      0.      0.       0
CBAR           1       1       2       1      1.      0.      0.
ENDDATA
