INIT MASTER(S)
NASTRAN SYSTEM(319)=1
ID golandwing,FEMAP
SOL SEFLUTTR
CEND
  TITLE = flutter
  ECHO = NONE
  DISPLACEMENT(PRINT) = ALL
  SPCFORCE(PRINT) = ALL
  STRESS(PRINT,CORNER) = ALL
  AEROF = All
  SPC = 1
  CMETHOD = 1
  METHOD = 1
  FMETHOD = 1
BEGIN BULK
$ ***************************************************************************
$   Written by : Femap
$   Version    : 2021.2.1
$   Translator : MSC Nastran
$   From Model : C:\Users\ughin\OneDrive - Politecnico di Milano\simulations\goland\golandwing.modfem
$   Date       : Sat Dec  9 18:21:51 2023
$   Output To  : C:\Users\ughin\OneDrive - Politecnico di Milano\simulations\goland\
$ ***************************************************************************
$
PARAM,PRGPST,YES
PARAM,POST,-1
PARAM,OGEOM,NO
PARAM,AUTOSPC,YES
PARAM,GRDPNT,0
CORD2C         1       0      0.      0.      0.      0.      0.      1.+FEMAPC1
+FEMAPC1      1.      0.      1.        
CORD2S         2       0      0.      0.      0.      0.      0.      1.+FEMAPC2
+FEMAPC2      1.      0.      1.        
$ Femap Function 5 : Mach Number vs. Freq Function
MKAERO2    .5882   .3267   .5588   .3439   .5294    .363      .5   .3843
MKAERO2    .4706   .4083   .4412   .4355   .4118   .4667   .3824   .5026
MKAERO2    .3529   .5444   .3235   .5939   .2941   .6533   .2647   .7259
MKAERO2    .2353   .8166   .2059   .9333   .1765  1.0889   .1471  1.3066
MKAERO2    .1176  1.6333   .0882  2.1777   .0588  3.2666   .0294  6.5332
AERO           0      1.      7.   1.225       0       0                
FLUTTER        1    PKNL       2       3       6       L       0    .001
$ DENSITY-----------------------------------------------------------------------
$ Femap Function 2 : vs. Aerodynamic Factor Function
FLFACT         2      1.      1.      1.      1.      1.      1.      1.+       
+             1.      1.      1.      1.      1.      1.      1.      1.+       
+             1.      1.      1.      1.      1.                        
$ MACH NO-----------------------------------------------------------------------
$ Femap Function 3 : vs. Aerodynamic Factor Function
FLFACT         3   .0294   .0588   .0882   .1176   .1471   .1765   .2059+       
+          .2353   .2647   .2941   .3235   .3529   .3824   .4118   .4412+       
+          .4706      .5   .5294   .5588   .5882                        
$ VELOCITY----------------------------------------------------------------------
$ Femap Function 6 : vs. Aerodynamic Factor Function
FLFACT         6     10.     20.     30.     40.     50.     60.     70.+       
+            80.     90.    100.    110.    120.    130.    140.    150.+       
+           160.    170.    180.    190.    200.                        
EIGRL          1                       6       0                     MAX
EIGC           1    CLAN     MAX                                        +       
+                                                              6
PARAM,LMODES,4
$ Femap Constraint Set 1 : clamp
SPC1           1  123456       1
$ Femap Property 1 : longherone
PBAR           1       1   1.+10  9.77+79770000. 988000.      0.        +       
+             0.      0.      0.      0.      0.      0.      0.      0.+       
+             1.      1.      0.
$ Femap Material 1 : alluminio
MAT1           1      1.      1.              0.      0.      0.        
GRID           1       0      0.      0.      0.       0
GRID           2       0      0.   .6096      0.       0
GRID           3       0      0.  1.2192      0.       0
GRID           4       0      0.  1.8288      0.       0
GRID           5       0      0.  2.4384      0.       0
GRID           6       0      0.   3.048      0.       0
GRID           7       0      0.  3.6576      0.       0
GRID           8       0      0.  4.2672      0.       0
GRID           9       0      0.  4.8768      0.       0
GRID          10       0      0.  5.4864      0.       0
GRID          11       0      0.   6.096      0.       0
GRID          12       0 -.60357   .6096      0.       0
GRID          13       0 -.60357  1.2192      0.       0
GRID          14       0 -.60357  1.8288      0.       0
GRID          15       0 -.60357  2.4384      0.       0
GRID          16       0 -.60357   3.048      0.       0
GRID          17       0 -.60357  3.6576      0.       0
GRID          18       0 -.60357  4.2672      0.       0
GRID          19       0 -.60357  4.8768      0.       0
GRID          20       0 -.60357  5.4864      0.       0
$ ... 19 like lines cut
CBAR           1       1       1       2      1.      0.      0.
CBAR           2       1       2       3      1.      0.      0.
CBAR           3       1       3       4      1.      0.      0.
CBAR           4       1       4       5      1.      0.      0.
CBAR           5       1       5       6      1.      0.      0.
CBAR           6       1       6       7      1.      0.      0.
CBAR           7       1       7       8      1.      0.      0.
CBAR           8       1       8       9      1.      0.      0.
CBAR           9       1       9      10      1.      0.      0.
CBAR          10       1      10      11      1.      0.      0.
RBE2          11       1  123456      35      34
RBE2          12       2  123456      22      12
RBE2          13       3  123456      26      13
RBE2          14       4  123456      24      14
RBE2          15       5  123456      15      25
RBE2          16       6  123456      16      27
RBE2          17       7  123456      17      28
RBE2          18       8  123456      18      29
RBE2          19       9  123456      19      30
RBE2          20      10  123456      20      31
RBE2          21      11  123456      21      32
CONM2         22       1       0 10.8844   .1829   .1524      0.        +       
+          .0843      0.  2.2696      0.      0.   .0843
CONM2         23       2       0 21.7688   .1829      0.      0.        +       
+          .6741      0.  4.5393      0.      0.   .6741
CONM2         24       3       0 21.7688   .1829      0.      0.        +       
+          .6741      0.  4.5393      0.      0.   .6741
CONM2         25       4       0 21.7688   .1829      0.      0.        +       
+          .6741      0.  4.5393      0.      0.   .6741
CONM2         26       5       0 21.7688   .1829      0.      0.        +       
+          .6741      0.  4.5393      0.      0.   .6741
CONM2         27       6       0 21.7688   .1829      0.      0.        +       
+          .6741      0.  4.5393      0.      0.   .6741
CONM2         28       7       0 21.7688   .1829      0.      0.        +       
+          .6741      0.  4.5393      0.      0.   .6741
CONM2         29       8       0 21.7688   .1829      0.      0.        +       
+          .6741      0.  4.5393      0.      0.   .6741
CONM2         30       9       0 21.7688   .1829      0.      0.        +       
+          .6741      0.  4.5393      0.      0.   .6741
CONM2         31      10       0 21.7688   .1829      0.      0.        +       
+          .6741      0.  4.5393      0.      0.   .6741
CONM2         32      11       0 10.8844   .1829  -.1524      0.        +       
+          .0843      0.  2.2696      0.      0.   .0843
RBE2          33      23  123456      33      39
RBE2          34      37  123456      36      38
RBE2          35      11   12346      23      37
CELAS2        36 100000.      23       5      11       5      0.        
CONM2         37      23       0 21.7688   .1829      0.      0.        +       
+          .6741      0.  4.5393      0.      0.   .6741
CONM2         38      37       0 21.7688   .1829      0.      0.        +       
+          .6741      0.  4.5393      0.      0.   .6741
CELAS2        40   1.+10      23       5      37       5      0.        
$ Femap Aero Property 1 : golandaero
PAERO1         1                                                        
$ Femap Aero Panel 1 : golandpanel
CAERO1         1       1       0      40      20                       1+       
+        -.60357      0.      0.   1.829 -.60357      7.      0.   1.829
SET1           1       1       2       3       4       5       6       7+       
+              8       9      10      11      12      13      14      15+       
+             16      17      18      19      20      21      22      23+       
+             24      25      26      27      28      29      30      31+       
+             32      33      34      35      36      37      38      39
$ Femap Aero Spline 1 : golandspline
SPLINE1        1       1       1     800       1      0.     IPS    BOTH
ENDDATA
