INIT MASTER(S)
NASTRAN SYSTEM(319)=1
ID plane2,FEMAP
SOL SEMODES
CEND
  TITLE = modal
  ECHO = NONE
  DISPLACEMENT(PRINT) = ALL
  SPCFORCE(PRINT) = ALL
  ESE(PRINT) = ALL
  METHOD = 1
  SPC = 1
BEGIN BULK
$ ***************************************************************************
$   Written by : Femap
$   Version    : 2021.2.1
$   Translator : MSC Nastran
$   From Model : D:\repositoriesgithub\Nuova cartella\Aeroelasticity-Project\plane2.modfem
$   Date       : Sat Jan 13 12:58:35 2024
$   Output To  : D:\repositoriesgithub\Nuova cartella\Aeroelasticity-Project\
$ ***************************************************************************
$
PARAM,PRGPST,NO
PARAM,POST,-1
PARAM,OGEOM,NO
PARAM,AUTOSPC,YES
PARAM,GRDPNT,0
EIGRL          1                      50       0                    MASS
CORD2C         1       0      0.      0.      0.      0.      0.      1.+FEMAPC1
+FEMAPC1      1.      0.      1.        
CORD2S         2       0      0.      0.      0.      0.      0.      1.+FEMAPC2
+FEMAPC2      1.      0.      1.        
$ Femap Coordinate System 3 : leftail
CORD2R         3       0      .5     -5.      0.      .5     -5.      1.+       
+            1.5     -5.      0.        
$ Femap Coordinate System 4 : rightail
CORD2R         4       0      .5      5.      0.      .5      5.      1.+       
+            1.5      5.      0.        
$ Femap Coordinate System 5 : rudder
CORD2R         5       0    4.75      0.      0.    4.75      0.      1.+       
+           5.75      0.      0.        
$ Femap Constraint Set 1 : clamp
SPC1           1  123456       1
$ Femap Property 1 : spar
$ Femap PropShape 1 : 2,0,0.4,0.8,0.,0.,0.,0.07
$ Femap PropMethod 1 : 2,0,1,0.
$ Femap PropOrient 1 : 2,0,0.,1.,2.,3.,4.,-1.,0.,0.
PBAR           1       1   .1484.0108376   .0033.0082666      0.        +       
+            -.4     -.2      .4     -.2      .4      .2     -.4      .2+       
+       .6793329.2527372      0.
$ Femap Property 3 : fuselage
$ Femap PropShape 3 : 6,0,1.,0.,0.,0.,0.,0.3
$ Femap PropMethod 3 : 6,0,1,0.3
$ Femap PropOrient 3 : 6,0,0.,1.,2.,3.,4.,-1.,0.,0.
PBAR           3       11.602212 .596824 .5968241.192787      0.        +       
+             0.     -1.      1.      0.      0.      1.     -1.      0.+       
+       .5567441.5567434      0.
$ Femap Material 1 : al
MAT1           1  70000.             .33      0.      0.      0.        
GRID           1       0      0.      0.      0.       0
GRID           2       0      0.     -1.      0.       0
GRID           3       0      0.     -2.      0.       0
GRID           4       0      0.     -3.      0.       0
GRID           5       0      0.     -4.      0.       0
GRID           6       0      0.     -5.      0.       0
GRID           7       0    4.25      0.     1.5       0
GRID           8       0      0.      1.      0.       0
GRID           9       0      0.      2.      0.       0
GRID          10       0      0.      3.      0.       0
GRID          11       0      0.      4.      0.       0
GRID          12       0      0.      5.      0.       0
GRID          13       0    -.25     -5.      0.       0
GRID          14       0    -.25     -4.      0.       0
GRID          15       0    -.25     -3.      0.       0
GRID          16       0    -.25     -2.      0.       0
GRID          17       0    -.25     -1.      0.       0
GRID          18       0    -.25      0.      0.       0
GRID          19       0    -.25      1.      0.       0
GRID          20       0    -.25      2.      0.       0
$ ... 70 like lines cut
CBAR           1       1       1       2      1.      0.      0.
CBAR           2       1       2       3      1.      0.      0.
CBAR           3       1       3       4      1.      0.      0.
CBAR           4       1       4       5      1.      0.      0.
CBAR           5       1       5       6      1.      0.      0.
CBAR           6       1       1       8      1.      0.      0.
CBAR           7       1       8       9      1.      0.      0.
CBAR           8       1       9      10      1.      0.      0.
CBAR           9       1      10      11      1.      0.      0.
CBAR          10       1      11      12      1.      0.      0.
RBE2          11       6  123456      13      34
RBE2          12       5  123456      14      33
RBE2          13       4  123456      15      32
RBE2          14       3  123456      16      31
RBE2          15       2  123456      17      30
RBE2          16       1  123456      18      29
RBE2          17       8  123456      19      28
RBE2          18       9  123456      20      27
RBE2          19      10  123456      26      21
RBE2          20      11  123456      22      25
RBE2          21      12  123456      23      24
CONM2         22       6       0    100.      .3      0.      0.                
CONM2         23       5       0    100.      .3      0.      0.                
CONM2         24       4       0    100.      .3      0.      0.                
CONM2         25       3       0    100.      .3      0.      0.                
CONM2         26       2       0    100.      .3      0.      0.                
CONM2         27       1       0    100.      .3      0.      0.                
CONM2         28       8       0    100.      .3      0.      0.                
CONM2         29       9       0    100.      .3      0.      0.                
CONM2         30      10       0    100.      .3      0.      0.                
CONM2         31      11       0    100.      .3      0.      0.                
CONM2         32      12       0    100.      .3      0.      0.                
CBAR          33       1       7      35      1.      0.      0.
CBAR          34       1      35      36      1.      0.      0.
CBAR          35       1      36      37      1.      0.      0.
CBAR          36       1      37      38      1.      0.      0.
CBAR          37       1      38      39      1.      0.      0.
CBAR          38       3       1      41      0.      1.      0.
CBAR          39       3      41      42      0.      1.      0.
CBAR          40       3      42      43      0.      1.      0.
CBAR          41       3      43      44      0.      1.      0.
CBAR          42       3      44      45      0.      1.      0.
CBAR          43       3      45      46      0.      1.      0.
CBAR          44       3      46      47      0.      1.      0.
CBAR          45       3      47      48      0.      1.      0.
CBAR          46       3      48      49      0.      1.      0.
CBAR          47       3      49      50      0.      1.      0.
CBAR          48       3      50      51      0.      1.      0.
CBAR          49       3      51      52      0.      1.      0.
CBAR          50       3      52      53      0.      1.      0.
CBAR          51       3      53      54      0.      1.      0.
CBAR          52       3      54      55      0.      1.      0.
$ ... 25 like lines cut
CONM2         78      56       0    100.      .3      0.      0.                
CONM2         79      64       0    100.      .3      0.      0.                
CONM2         80      68       0    100.      .3      0.      0.                
CONM2         81      35       0    100.      .3      0.      0.                
CONM2         82      36       0    100.      .3      0.      0.                
CONM2         83      37       0    100.      .3      0.      0.                
CONM2         84      38       0    100.      .3      0.      0.                
CONM2         85       7       0    100.      .3      0.      0.                
CONM2         86      39       0    100.      .3      0.      0.                
CONM2         87      63       0    100.      .3      0.      0.                
CONM2         88      56       0    100.      .3      0.      0.                
CONM2         89      67       0    100.      .3      0.      0.                
CONM2         90      66       0    100.      .3      0.      0.                
CONM2         91      72       0    100.      .3      0.      0.                
CONM2         92      71       0    100.      .3      0.      0.                
CONM2         93      75       0    100.      .3      0.      0.                
RBE2          94      38  123456      87      92
RBE2          95      37  123456      88      93
RBE2          96      36  123456      89      94
RBE2          97      35  123456      90      95
RBE2          98       7  123456      91      96
ENDDATA
