INIT MASTER(S)
NASTRAN SYSTEM(319)=1
ID smallplane,FEMAP
SOL SEMODES
CEND
  TITLE = modal
  ECHO = NONE
  DISPLACEMENT(PRINT) = ALL
  SPCFORCE(PRINT) = ALL
  ESE(PRINT) = ALL
  METHOD = 1
  SPC = 1
BEGIN BULK
$ ***************************************************************************
$   Written by : Femap
$   Version    : 2021.2.1
$   Translator : MSC Nastran
$   From Model : D:\repositoriesgithub\Nuova cartella\Aeroelasticity-Project\smallplane.modfem
$   Date       : Thu Jan 11 18:55:45 2024
$   Output To  : D:\repositoriesgithub\Nuova cartella\Aeroelasticity-Project\
$ ***************************************************************************
$
PARAM,PRGPST,NO
PARAM,POST,-1
PARAM,OGEOM,NO
PARAM,AUTOSPC,YES
PARAM,GRDPNT,0
EIGRL          1                      10       0                    MASS
CORD2C         1       0      0.      0.      0.      0.      0.      1.+FEMAPC1
+FEMAPC1      1.      0.      1.        
CORD2S         2       0      0.      0.      0.      0.      0.      1.+FEMAPC2
+FEMAPC2      1.      0.      1.        
$ Femap Constraint Set 1 : clamp
SPC1           1  123456      11
$ Femap Property 1 : spar
$ Femap PropShape 1 : 2,0,0.3,1.,0.,0.,0.,0.1
$ Femap PropMethod 1 : 2,0,1,0.3
$ Femap PropOrient 1 : 2,0,0.,1.,2.,3.,4.,-1.,0.,0.
PBAR           1       1     .22.0207333.0021833.0068856      0.        +       
+            -.5    -.15      .5    -.15      .5     .15     -.5     .15+       
+       .8016273.1371586      0.
$ Femap Property 2 : fuselage
$ Femap PropShape 2 : 6,0,0.5,0.,0.,0.,0.,0.1
$ Femap PropMethod 2 : 6,0,1,0.3
$ Femap PropOrient 2 : 6,0,0.,1.,2.,3.,4.,-1.,0.,0.
PBAR           2       1 .282743.0289812.0289812.0579406      0.        +       
+             0.     -.5      .5      0.      0.      .5     -.5      0.+       
+       .5410532.5410532      0.
$ Femap Material 1 : aluminum
MAT1           1  70000.             .33      0.      0.      0.        
GRID           1       0      0.     -5.      0.       0
GRID           2       0      0.    -4.5      0.       0
GRID           3       0      0.     -4.      0.       0
GRID           4       0      0.    -3.5      0.       0
GRID           5       0      0.     -3.      0.       0
GRID           6       0      0.    -2.5      0.       0
GRID           7       0      0.     -2.      0.       0
GRID           8       0      0.    -1.5      0.       0
GRID           9       0      0.     -1.      0.       0
GRID          10       0      0.     -.5      0.       0
GRID          11       0      0.      0.      0.       0
GRID          13       0      0.      .5      0.       0
GRID          14       0      0.      1.      0.       0
GRID          15       0      0.     1.5      0.       0
GRID          16       0      0.      2.      0.       0
GRID          17       0      0.     2.5      0.       0
GRID          18       0      0.      3.      0.       0
GRID          19       0      0.     3.5      0.       0
GRID          20       0      0.      4.      0.       0
GRID          21       0      0.     4.5      0.       0
$ ... 52 like lines cut
CBAR           1       1       1       2      1.      0.      0.
CBAR           2       1       2       3      1.      0.      0.
CBAR           3       1       3       4      1.      0.      0.
CBAR           4       1       4       5      1.      0.      0.
CBAR           5       1       5       6      1.      0.      0.
CBAR           6       1       6       7      1.      0.      0.
CBAR           7       1       7       8      1.      0.      0.
CBAR           8       1       8       9      1.      0.      0.
CBAR           9       1       9      10      1.      0.      0.
CBAR          10       1      10      11      1.      0.      0.
CBAR          11       1      11      13      1.      0.      0.
CBAR          12       1      13      14      1.      0.      0.
CBAR          13       1      14      15      1.      0.      0.
CBAR          14       1      15      16      1.      0.      0.
CBAR          15       1      16      17      1.      0.      0.
CBAR          16       1      17      18      1.      0.      0.
CBAR          17       1      18      19      1.      0.      0.
CBAR          18       1      19      20      1.      0.      0.
CBAR          19       1      20      21      1.      0.      0.
CBAR          20       1      21      22      1.      0.      0.
RBE2          25      11  123456      23      24      25      27      26
RBE2          26      28  123456      33      32
RBE2          27      29  123456      31      30
CBAR          28       1      27      28      1.      0.      0.
CBAR          29       1      27      29      1.      0.      0.
RBE2          30       1  123456      35      55
RBE2          31       2  123456      56      34
RBE2          32       3  123456      57      42
RBE2          33       4  123456      58      43
RBE2          34       5  123456      59      41
RBE2          35       6  123456      39      60
RBE2          36       7  123456      38      61
RBE2          37       8  123456      37      62
RBE2          38       9  123456      36      63
RBE2          39      10  123456      40      64
RBE2          40      13  123456      45      65
RBE2          41      14  123456      46      66
RBE2          42      15  123456      44      67
RBE2          43      16  123456      49      68
RBE2          44      17  123456      48      69
RBE2          45      18  123456      50      70
RBE2          46      19  123456      51      71
RBE2          47      20  123456      52      72
RBE2          48      21  123456      53      73
RBE2          49      22  123456      54      74
CONM2         50       2       0    100.      .3      0.      0.                
CONM2         51       4       0    100.      .3      0.      0.                
CONM2         52       6       0    100.      .3      0.      0.                
CONM2         53       8       0    100.      .3      0.      0.                
CONM2         54      10       0    100.      .3      0.      0.                
CONM2         55      13       0    100.      .3      0.      0.                
CONM2         56      15       0    100.      .3      0.      0.                
CONM2         57      17       0    100.      .3      0.      0.                
CONM2         58      19       0    100.      .3      0.      0.                
CONM2         59      21       0    100.      .3      0.      0.                
CONM2         60      28       0    100.      .3      0.      0.                
CONM2         61      29       0    100.      .3      0.      0.                
ENDDATA
