INIT MASTER(S)
NASTRAN SYSTEM(319)=1
ID tubo,FEMAP
SOL SESTATIC
CEND
  TITLE = static test 1
  ECHO = NONE
  DISPLACEMENT(PRINT) = ALL
  SPCFORCE(PRINT) = ALL
  OLOAD(PRINT) = ALL
  FORCE(PRINT,CORNER) = ALL
  STRESS(PRINT,CORNER) = ALL
  SPC = 1
  LOAD = 1
BEGIN BULK
$ ***************************************************************************
$   Written by : Femap
$   Version    : 2021.2.1
$   Translator : MSC Nastran
$   From Model : D:\repositoriesgithub\Nuova cartella\Aeroelasticity-Project\tubo.modfem
$   Date       : Tue Feb 13 17:11:24 2024
$   Output To  : D:\repositoriesgithub\Nuova cartella\Aeroelasticity-Project\
$ ***************************************************************************
$
PARAM,PRGPST,NO
PARAM,POST,-1
PARAM,OGEOM,NO
PARAM,AUTOSPC,YES
PARAM,K6ROT,100.
PARAM,GRDPNT,0
CORD2C         1       0      0.      0.      0.      0.      0.      1.+FEMAPC1
+FEMAPC1      1.      0.      1.        
CORD2S         2       0      0.      0.      0.      0.      0.      1.+FEMAPC2
+FEMAPC2      1.      0.      1.        
$ Femap Coordinate System 3 : material_ref_sys
CORD2R         3       0      0.      0.      0.     -1.      0.      0.+       
+             0.      0.      1.        
$ Femap Load Set 1 : test vert load
FORCE          1      24       0      1.      0.      1.      0.
$ Femap Constraint Set 1 : Incastro
SPC1           1  123456       1
SPC1           1  123456       2
SPC1           1  123456       3
SPC1           1  123456       4
SPC1           1  123456       5
SPC1           1  123456      91
SPC1           1  123456      92
SPC1           1  123456      93
$ Femap Property 1 : laminate_element
PCOMP          1              0.                                        +       
+             10  3.25-4      0.     YES      10  3.25-4      0.     YES+       
+             10  3.25-4      0.     YES
$ Femap Material 10 : test_mat_1
MAT8          10  7.4+10  7.4+10     .05  4.55+9      0.      0.      0.+       
+             0.      0.      0.                                        +       
+                               
GRID           1       0     8.5      0.      0.       0
GRID           2       06.0104086.010408      0.       0
GRID           3       0      0.     8.5      0.       0
GRID           4       0-6.010416.010408      0.       0
GRID           5       0    -8.51.041-15      0.       0
GRID           6       0    -8.51.041-1553.82353       0
GRID           7       0    -8.51.041-15107.6471       0
GRID           8       0    -8.51.041-15161.4706       0
GRID           9       0    -8.51.041-15215.2941       0
GRID          10       0    -8.51.041-15269.1176       0
GRID          11       0    -8.51.041-15322.9412       0
GRID          12       0    -8.51.041-15376.7647       0
GRID          13       0    -8.51.041-15430.5882       0
GRID          14       0    -8.51.041-15484.4118       0
GRID          15       0    -8.51.041-15538.2353       0
GRID          16       0    -8.51.041-15592.0588       0
GRID          17       0    -8.51.041-15645.8824       0
GRID          18       0    -8.51.041-15699.7059       0
GRID          19       0    -8.51.041-15753.5294       0
GRID          20       0    -8.51.041-15807.3529       0
$ ... 124 like lines cut
CQUAD4         1       1       1       2      43      42       3        
CQUAD4         2       1       2       3      44      43       3        
CQUAD4         3       1       3       4      45      44       3        
CQUAD4         4       1       4       5       6      45       3        
CQUAD4         5       1      42      43      46      41       3        
CQUAD4         6       1      43      44      47      46       3        
CQUAD4         7       1      44      45      48      47       3        
CQUAD4         8       1      45       6       7      48       3        
CQUAD4         9       1      41      46      49      40       3        
CQUAD4        10       1      46      47      50      49       3        
CQUAD4        11       1      47      48      51      50       3        
CQUAD4        12       1      48       7       8      51       3        
CQUAD4        13       1      40      49      52      39       3        
CQUAD4        14       1      49      50      53      52       3        
CQUAD4        15       1      50      51      54      53       3        
CQUAD4        16       1      51       8       9      54       3        
CQUAD4        17       1      39      52      55      38       3        
CQUAD4        18       1      52      53      56      55       3        
CQUAD4        19       1      53      54      57      56       3        
CQUAD4        20       1      54       9      10      57       3        
$ ... 116 like lines cut
ENDDATA
