INIT MASTER(S)
NASTRAN SYSTEM(319)=1
ID beam,FEMAP
SOL SESTATIC
CEND
  TITLE = static load 2
  ECHO = NONE
  DISPLACEMENT(PRINT) = ALL
  SPCFORCE(PRINT) = ALL
  OLOAD(PRINT) = ALL
  FORCE(PRINT,CORNER) = ALL
  STRESS(PRINT,CORNER) = ALL
  SPC = 1
  LOAD = 1
BEGIN BULK
$ ***************************************************************************
$   Written by : Femap
$   Version    : 2021.2.1
$   Translator : MSC Nastran
$   From Model : D:\repositoriesgithub\Nuova cartella\Aeroelasticity-Project\4 elements\beam_sens4.modfem
$   Date       : Wed Feb 14 12:07:34 2024
$   Output To  : D:\repositoriesgithub\Nuova cartella\Aeroelasticity-Project\4 elements\
$ ***************************************************************************
$
PARAM,PRGPST,NO
PARAM,POST,-1
PARAM,OGEOM,NO
PARAM,AUTOSPC,YES
PARAM,K6ROT,100.
PARAM,GRDPNT,0
CORD2C         1       0      0.      0.      0.      0.      0.      1.+FEMAPC1
+FEMAPC1      1.      0.      1.        
CORD2S         2       0      0.      0.      0.      0.      0.      1.+FEMAPC2
+FEMAPC2      1.      0.      1.        
$ Femap Load Set 1 : load2
FORCE          1       2       0      1.      0.      0.      1.
$ Femap Constraint Set 1 : clamp
SPC1           1  123456       1
SPC1           1    1256       2
SPC1           1    1256       3
SPC1           1    1256       4
SPC1           1    1256       5
$ Femap Property 1 : bar
$ Femap PropShape 1 : 6,0,0.016,0.,0.,0.,0.,0.002
$ Femap PropMethod 1 : 6,0,1,0.3
$ Femap PropOrient 1 : 6,0,0.,1.,2.,3.,4.,-1.,0.,0.
PBAR           1       1 1.885-4  2.13-8  2.13-84.2592-8      0.        +       
+             0.   -.016    .016      0.      0.    .016   -.016      0.+       
+       .5343827.5343827      0.
$ Femap Material 1 : metal
MAT1           1   7.+10             .33      0.      0.      0.        
GRID           1       0      0.      0.      0.       0
GRID           2       0      0.  .22875      0.       0
GRID           3       0      0.   .4575      0.       0
GRID           4       0      0.  .68625      0.       0
GRID           5       0      0.    .915      0.       0
CBAR           1       1       1       2      1.      0.      0.
CBAR           2       1       2       3      1.      0.      0.
CBAR           3       1       3       4      1.      0.      0.
CBAR           4       1       4       5      1.      0.      0.
ENDDATA
