INIT MASTER(S)
NASTRAN SYSTEM(319)=1
ID geneltest2,FEMAP
SOL SESTATIC
CEND
  TITLE = load2
  ECHO = NONE
  DISPLACEMENT(PRINT) = ALL
  SPCFORCE(PRINT) = ALL
  ESE(PRINT) = ALL
  SPC = 1
  LOAD = 1
BEGIN BULK
$ ***************************************************************************
$   Written by : Femap
$   Version    : 2021.2.1
$   Translator : MSC Nastran
$   From Model : D:\repositoriesgithub\Nuova cartella\Aeroelasticity-Project\geneltest2.modfem
$   Date       : Mon Feb 12 17:19:15 2024
$   Output To  : D:\repositoriesgithub\Nuova cartella\Aeroelasticity-Project\
$ ***************************************************************************
$
PARAM,PRGPST,YES
PARAM,POST,-1
PARAM,OGEOM,NO
PARAM,AUTOSPC,YES
PARAM,K6ROT,100.
PARAM,GRDPNT,0
CORD2C         1       0      0.      0.      0.      0.      0.      1.+FEMAPC1
+FEMAPC1      1.      0.      1.        
CORD2S         2       0      0.      0.      0.      0.      0.      1.+FEMAPC2
+FEMAPC2      1.      0.      1.        
$ Femap Load Set 1 : load2
FORCE          1       2       0      1.      0.      0.      1.
$ Femap Constraint Set 1 : z deflection
SPC1           1  123456       1
SPC1           1    1256       2
SPC1           1    1256       3
$ Femap Property 1 : bar
$ Femap PropShape 1 : 1,0,0.1,0.1,0.,0.,0.,0.
$ Femap PropMethod 1 : 1,0,1,0.3
$ Femap PropOrient 1 : 1,0,0.,1.,2.,3.,4.,-1.,0.,0.
PBAR           1       1     .018.3333-68.3333-61.4072-5      0.        +       
+           -.05    -.05     .05    -.05     .05     .05    -.05     .05+       
+        .850116 .850116      0.
$ Femap Material 1 : metal
MAT1           1   7.+10             .33      0.      0.      0.        
GRID           1       0      0.      0.      0.       0
GRID           2       0      0.      .5      0.       0
GRID           3       0      0.      1.      0.       0
CBAR           1       1       1       2      1.      0.      0.
CBAR           2       1       2       3      1.      0.      0.
ENDDATA
