INIT MASTER(S)
NASTRAN SYSTEM(319)=1
ID geneltest,FEMAP
SOL SESTATIC
CEND
  TITLE = load3
  ECHO = NONE
  DISPLACEMENT(PRINT) = ALL
  SPCFORCE(PRINT) = ALL
  OLOAD(PRINT) = ALL
  FORCE(PRINT,CORNER) = ALL
  STRESS(PRINT,CORNER) = ALL
  SPC = 1
  LOAD = 2
BEGIN BULK
$ ***************************************************************************
$   Written by : Femap
$   Version    : 2021.2.1
$   Translator : MSC Nastran
$   From Model : D:\repositoriesgithub\Nuova cartella\Aeroelasticity-Project\geneltest.modfem
$   Date       : Mon Feb 12 16:50:40 2024
$   Output To  : D:\repositoriesgithub\Nuova cartella\Aeroelasticity-Project\
$ ***************************************************************************
$
PARAM,PRGPST,NO
PARAM,POST,-1
PARAM,OGEOM,NO
PARAM,AUTOSPC,YES
PARAM,K6ROT,100.
PARAM,GRDPNT,0
CORD2C         1       0      0.      0.      0.      0.      0.      1.+FEMAPC1
+FEMAPC1      1.      0.      1.        
CORD2S         2       0      0.      0.      0.      0.      0.      1.+FEMAPC2
+FEMAPC2      1.      0.      1.        
$ Femap Load Set 2 : load3
FORCE          2       3       0      1.      0.      0.      1.
$ Femap Constraint Set 1 : z deflection
SPC1           1  123456       1
SPC1           1   12456       2
SPC1           1   12456       3
$ Femap Material 1 : metal
MAT1           1   7.+10             .33      0.      0.      0.        
GRID           1       0      0.      0.      0.       0
GRID           2       0      0.      .5      0.       0
GRID           3       0      0.      1.      0.       0
GENEL        100               2       3       3       3
               Z2.0092-82.0092-84.0184-8
ENDDATA
