INIT MASTER(S)
NASTRAN SYSTEM(319)=1
ID geneltest,FEMAP
SOL SESTATIC
CEND
  TITLE = set 1
  ECHO = NONE
  DISPLACEMENT(PRINT) = ALL
  SPCFORCE(PRINT) = ALL
  ESE(PRINT) = ALL
  SPC = 1
  LOAD = 4
BEGIN BULK
$ ***************************************************************************
$   Written by : Femap
$   Version    : 2021.2.1
$   Translator : MSC Nastran
$   From Model : D:\repositoriesgithub\Nuova cartella\Aeroelasticity-Project\geneltest.modfem
$   Date       : Sun Feb  4 19:47:43 2024
$   Output To  : D:\repositoriesgithub\Nuova cartella\Aeroelasticity-Project\
$ ***************************************************************************
$
PARAM,PRGPST,NO
PARAM,POST,-1
PARAM,OGEOM,NO
PARAM,AUTOSPC,YES
PARAM,K6ROT,100.
PARAM,GRDPNT,0
CORD2C         1       0      0.      0.      0.      0.      0.      1.+FEMAPC1
+FEMAPC1      1.      0.      1.        
CORD2S         2       0      0.      0.      0.      0.      0.      1.+FEMAPC2
+FEMAPC2      1.      0.      1.        
$ Femap Load Set 4 : load4
FORCE          4       4       0      1.      0.      1.      0.
$ Femap Constraint Set 1 : clamp
SPC1           1  123456       1
$ Femap Property 1 : bar
$ Femap PropShape 1 : 5,0,0.01,0.,0.,0.,0.,0.
$ Femap PropMethod 1 : 5,0,1,0.3
$ Femap PropOrient 1 : 5,0,0.,1.,2.,3.,4.,-1.,0.,0.
PBAR           1       13.1416-4 7.854-9 7.854-91.5695-8      0.        +       
+             0.    -.01     .01      0.      0.     .01    -.01      0.+       
+       .8861818.8861818      0.
$ Femap Material 1 : metal
MAT1           1  70000.             .33      0.      0.      0.        
GRID           1       0      0.      0.      0.       0
GRID           2       0.1666667      0.      0.       0
GRID           3       0.3333333      0.      0.       0
GRID           4       0      .5      0.      0.       0
GRID           5       0.6666667      0.      0.       0
GRID           6       0.8333333      0.      0.       0
GRID           7       0      1.      0.      0.       0
CBAR           1       1       1       2      0.      1.      0.
CBAR           2       1       2       3      0.      1.      0.
CBAR           3       1       3       4      0.      1.      0.
CBAR           4       1       4       5      0.      1.      0.
CBAR           5       1       5       6      0.      1.      0.
CBAR           6       1       6       7      0.      1.      0.
ENDDATA
