INIT MASTER(S)
NASTRAN SYSTEM(319)=1
ID geneltest,FEMAP
SOL SESTATIC
CEND
  TITLE = set 1
  ECHO = NONE
  DISPLACEMENT(PRINT) = ALL
  SPCFORCE(PRINT) = ALL
  ESE(PRINT) = ALL
  SPC = 1
  LOAD = 7
BEGIN BULK
$ ***************************************************************************
$   Written by : Femap
$   Version    : 2021.2.1
$   Translator : MSC Nastran
$   From Model : D:\repositoriesgithub\Nuova cartella\Aeroelasticity-Project\geneltest.modfem
$   Date       : Mon Feb 12 09:56:43 2024
$   Output To  : D:\repositoriesgithub\Nuova cartella\Aeroelasticity-Project\
$ ***************************************************************************
$
$INCLUDE GENEL.DAT
PARAM,PRGPST,NO
PARAM,POST,-1
PARAM,OGEOM,NO
PARAM,AUTOSPC,YES
PARAM,K6ROT,100.
PARAM,GRDPNT,0
CORD2C         1       0      0.      0.      0.      0.      0.      1.+FEMAPC1
+FEMAPC1      1.      0.      1.        
CORD2S         2       0      0.      0.      0.      0.      0.      1.+FEMAPC2
+FEMAPC2      1.      0.      1.        
$ Femap Load Set 7 : load7
FORCE          7       7       0      1.      0.      1.      0.
$ Femap Material 1 : metal
MAT1           1  70000.             .33      0.      0.      0. 
GRDSET                 0                               0   12456
GRID           1       0      0.      0.      0.       0  123456
GRID           2       0.1666667      0.      0.       0
GRID           3       0.3333333      0.      0.       0
GRID           4       0      .5      0.      0.       0
GRID           5       0.6666667      0.      0.       0
GRID           6       0.8333333      0.      0.       0
GRID           7       0      1.      0.      0.       0
GENEL      10000               2       3       3       3       4       3+       
+              5       3       6       3       7       3                +        
+              Z  2.8297  7.0401 11.2506  15.461 19.6715 23.8819 22.5012+       
+        39.3429 56.1847 73.0264 89.8682 75.8561113.7501 151.644 189.538+       
+       179.7364247.1034314.4704350.9836456.2445606.4396                        
ENDDATA
