INIT MASTER(S)
NASTRAN SYSTEM(319)=1
ID win,FEMAP
SOL SESTATIC
CEND
  TITLE = static 4
  ECHO = NONE
  DISPLACEMENT(PRINT) = ALL
  SPCFORCE(PRINT) = ALL
  OLOAD(PRINT) = ALL
  FORCE(PRINT,CORNER) = ALL
  STRESS(PRINT,CORNER) = ALL
  SPC = 4
  LOAD = 3
BEGIN BULK
$ ***************************************************************************
$   Written by : Femap
$   Version    : 2021.2.1
$   Translator : MSC Nastran
$   From Model : D:\repositoriesgithub\Nuova cartella\Aeroelasticity-Project\genel_aero_test\wingspar.modfem
$   Date       : Wed Feb 14 15:37:30 2024
$   Output To  : D:\repositoriesgithub\Nuova cartella\Aeroelasticity-Project\genel_aero_test\
$ ***************************************************************************
$
PARAM,PRGPST,NO
PARAM,POST,-1
PARAM,OGEOM,NO
PARAM,AUTOSPC,YES
PARAM,K6ROT,100.
PARAM,GRDPNT,0
CORD2C         1       0      0.      0.      0.      0.      0.      1.+FEMAPC1
+FEMAPC1      1.      0.      1.        
CORD2S         2       0      0.      0.      0.      0.      0.      1.+FEMAPC2
+FEMAPC2      1.      0.      1.        
$ Femap Coordinate System 3 : tail_ref
CORD2R         3       0      5.      0.      .5      5.      0.     1.5+       
+             6.      0.      .5        
$ Femap Load Set 3 : load4
MOMENT         3       4       0      1.      0.      1.      0.
$ Femap Constraint Set 4 : torsion_test
SPC1           4  123456       1
SPC1           4   12346       2
SPC1           4   12346       3
SPC1           4   12346       4
SPC1           4   12346       5
$ Femap Property 1 : bar
$ Femap PropShape 1 : 5,0,0.3,0.,0.,0.,0.,0.
$ Femap PropMethod 1 : 5,0,1,0.3
$ Femap PropOrient 1 : 5,0,0.,1.,2.,3.,4.,-1.,0.,0.
PBAR           1       1 .282743.0063617.0063617.0127127      0.        +       
+             0.     -.3      .3      0.      0.      .3     -.3      0.+       
+       .8861758.8861758      0.
$ Femap Material 1 : metal
MAT1           1   7.+10             .33      0.      0.      0.        
GRID           1       0      0.      0.      0.       0
GRID           2       0      0.    1.25      0.       0
GRID           3       0      0.     2.5      0.       0
GRID           4       0      0.    3.75      0.       0
GRID           5       0      0.      5.      0.       0
GRID           6       0     -.5    1.25      0.       0
GRID           7       0     -.5     2.5      0.       0
GRID           8       0     -.5    3.75      0.       0
GRID           9       0     -.5      5.      0.       0
GRID          10       0     -.5      0.      0.       0
GRID          11       0      .5    1.25      0.       0
GRID          12       0      .5      0.      0.       0
GRID          13       0      .5     2.5      0.       0
GRID          14       0      .5    3.75      0.       0
GRID          15       0      .5      5.      0.       0
GRID          16       0      5.      0.      .5       0
GRID          17       0      5.      2.      .5       0
GRID          18       0     4.5      0.      .5       0
GRID          19       0     4.5      2.      .5       0
GRID          20       0     5.5      0.      .5       0
GRID          21       0     5.5      2.      .5       0
CBAR           1       1       1       2      1.      0.      0.
CBAR           2       1       2       3      1.      0.      0.
CBAR           3       1       3       4      1.      0.      0.
CBAR           4       1       4       5      1.      0.      0.
RBE2           5       1  123456      10      12      16
RBE2           6       2  123456       6      11
RBE2           7       3  123456       7      13
RBE2           8       4  123456       8      14
RBE2           9       5  123456       9      15
RBE2          10      17  123456      19      21
RBE2          11      16  123456      18      20
CBAR          12       1      16      17      1.      0.      0.
ENDDATA
