INIT MASTER(S)
NASTRAN SYSTEM(319)=1
ID plane2,FEMAP
SOL AESTAT
CEND
  TITLE = freeflight
  ECHO = NONE
  DISPLACEMENT(PRINT) = ALL
  SPCFORCE(PRINT) = ALL
  STRESS(PRINT,CORNER) = ALL
  APRES = All
  AEROF = All
  TRIM = 1
BEGIN BULK
$ ***************************************************************************
$   Written by : Femap
$   Version    : 2021.2.1
$   Translator : MSC Nastran
$   From Model : D:\repositoriesgithub\Nuova cartella\Aeroelasticity-Project\plane2.modfem
$   Date       : Sat Jan 13 14:50:30 2024
$   Output To  : D:\repositoriesgithub\Nuova cartella\Aeroelasticity-Project\
$ ***************************************************************************
$
PARAM,PRGPST,NO
PARAM,POST,-1
PARAM,OGEOM,NO
PARAM,AUTOSPC,YES
PARAM,GRDPNT,0
CORD2C         1       0      0.      0.      0.      0.      0.      1.+FEMAPC1
+FEMAPC1      1.      0.      1.        
CORD2S         2       0      0.      0.      0.      0.      0.      1.+FEMAPC2
+FEMAPC2      1.      0.      1.        
$ Femap Coordinate System 3 : leftail
CORD2R         3       0      .5     -5.      0.      .5     -5.      1.+       
+            1.5     -5.      0.        
$ Femap Coordinate System 4 : rightail
CORD2R         4       0      .5      5.      0.      .5      5.      1.+       
+            1.5      5.      0.        
$ Femap Coordinate System 5 : rudder
CORD2R         5       0    4.75      0.      0.    4.75      0.      1.+       
+           5.75      0.      0.        
$ Femap Coordinate System 6 : elev
CORD2R         6       0    4.75      0.     1.5    4.75      0.     2.5+       
+           5.75      0.     1.5        
PARAM,AUNITS,9.81
AESTAT         1  ANGLEA
AESTAT         2   SIDES
AESTAT         3    ROLL
AESTAT         4   PITCH
AESTAT         5     YAW
AESTAT         6   URDD1
AESTAT         7   URDD2
AESTAT         8   URDD3
AESTAT         9   URDD4
AESTAT        10   URDD5
AESTAT        11   URDD6
TRIM           1.0029412   .6125   SIDES      0.    ROLL      0.      0.+       
+          PITCH      0.     YAW      0.   URDD1      0.   URDD2      0.+       
+          URDD3     -1.   URDD4      0.   URDD5      0.   URDD6      0.+       
+           elev      0.  rudder      0.    Rail      0.   Leail      0.
AEROS          0       0      1.     10.     10.       0       0
$ Femap Aero Control Surface 1 : elevator
AESURF         1    elev       6       1                      1.     LDW+       
+            .25      1.                                                
$ Femap Aero Control Surface 2 : rightail
AESURF         2    Rail       4       5                      1.     LDW+       
+            .25   .6667                                                
$ Femap Aero Control Surface 3 : rudder
AESURF         3  rudder       5       4                      1.     LDW+       
+             1.     1.5                                                
$ Femap Aero Control Surface 4 : leftail
AESURF         4   Leail       3       3                      1.     LDW+       
+                                                                       
AELIST         1    2003    2007    2011    2015    2019    2023    2027+       
+           2031    2035    2039    2043    2047    2051    2055    2059+       
+           2063    2067    2071    2075    2079    2083    2087    2091+       
+           2095    2099                                                
AELIST         3       4       8      12      16                        
AELIST         4    1003    1007    1011    1015    1019                
AELIST         5      48      52      56      60                        
$ Femap Constraint Set 6 : freeflight
SUPORT         1  123456
$ Femap Property 1 : spar
$ Femap PropShape 1 : 2,0,0.4,0.8,0.,0.,0.,0.07
$ Femap PropMethod 1 : 2,0,1,0.
$ Femap PropOrient 1 : 2,0,0.,1.,2.,3.,4.,-1.,0.,0.
PBAR           1       1   .1484.0108376   .0033.0082666      0.        +       
+            -.4     -.2      .4     -.2      .4      .2     -.4      .2+       
+       .6793329.2527372      0.
$ Femap Property 3 : fuselage
$ Femap PropShape 3 : 6,0,1.,0.,0.,0.,0.,0.3
$ Femap PropMethod 3 : 6,0,1,0.3
$ Femap PropOrient 3 : 6,0,0.,1.,2.,3.,4.,-1.,0.,0.
PBAR           3       11.602212 .596824 .5968241.192787      0.        +       
+             0.     -1.      1.      0.      0.      1.     -1.      0.+       
+       .5567441.5567434      0.
$ Femap Material 1 : al
MAT1           1  70000.             .33      0.      0.      0.        
GRID           1       0      0.      0.      0.       0
GRID           2       0      0.     -1.      0.       0
GRID           3       0      0.     -2.      0.       0
GRID           4       0      0.     -3.      0.       0
GRID           5       0      0.     -4.      0.       0
GRID           6       0      0.     -5.      0.       0
GRID           7       0    4.25      0.     1.5       0
GRID           8       0      0.      1.      0.       0
GRID           9       0      0.      2.      0.       0
GRID          10       0      0.      3.      0.       0
GRID          11       0      0.      4.      0.       0
GRID          12       0      0.      5.      0.       0
GRID          13       0    -.25     -5.      0.       0
GRID          14       0    -.25     -4.      0.       0
GRID          15       0    -.25     -3.      0.       0
GRID          16       0    -.25     -2.      0.       0
GRID          17       0    -.25     -1.      0.       0
GRID          18       0    -.25      0.      0.       0
GRID          19       0    -.25      1.      0.       0
GRID          20       0    -.25      2.      0.       0
$ ... 100 like lines cut
CBAR           1       1       1       2      1.      0.      0.
CBAR           2       1       2       3      1.      0.      0.
CBAR           3       1       3       4      1.      0.      0.
CBAR           4       1       4       5      1.      0.      0.
CBAR           5       1       5       6      1.      0.      0.
CBAR           6       1       1       8      1.      0.      0.
CBAR           7       1       8       9      1.      0.      0.
CBAR           8       1       9      10      1.      0.      0.
CBAR           9       1      10      11      1.      0.      0.
CBAR          10       1      11      12      1.      0.      0.
RBE2          11       6  123456      13      34
RBE2          12       5  123456      14      33
RBE2          13       4  123456      15      32
RBE2          14       3  123456      16      31
RBE2          15       2  123456      17      30
RBE2          16       1  123456      18      29
RBE2          17       8  123456      19      28
RBE2          18       9  123456      20      27
RBE2          19      10  123456      26      21
RBE2          20      11  123456      22      25
RBE2          21      12  123456      23      24
CONM2         22       6       0    100.      .3      0.      0.                
CONM2         23       5       0    100.      .3      0.      0.                
CONM2         24       4       0    100.      .3      0.      0.                
CONM2         25       3       0    100.      .3      0.      0.                
CONM2         26       2       0    100.      .3      0.      0.                
CONM2         27       1       0    100.      .3      0.      0.                
CONM2         28       8       0    100.      .3      0.      0.                
CONM2         29       9       0    100.      .3      0.      0.                
CONM2         30      10       0    100.      .3      0.      0.                
CONM2         31      11       0    100.      .3      0.      0.                
CONM2         32      12       0    100.      .3      0.      0.                
CBAR          33       1       7      35      1.      0.      0.
CBAR          34       1      35      36      1.      0.      0.
CBAR          35       1      36      37      1.      0.      0.
CBAR          36       1      37      38      1.      0.      0.
CBAR          37       1      38      39      1.      0.      0.
CBAR          38       3       1      41      0.      1.      0.
CBAR          39       3      41      42      0.      1.      0.
CBAR          40       3      42      43      0.      1.      0.
CBAR          41       3      43      44      0.      1.      0.
CBAR          42       3      44      45      0.      1.      0.
CBAR          43       3      45      46      0.      1.      0.
CBAR          44       3      46      47      0.      1.      0.
CBAR          45       3      47      48      0.      1.      0.
CBAR          46       3      48      49      0.      1.      0.
CBAR          47       3      49      50      0.      1.      0.
CBAR          48       3      50      51      0.      1.      0.
CBAR          49       3      51      52      0.      1.      0.
CBAR          50       3      52      53      0.      1.      0.
CBAR          51       3      53      54      0.      1.      0.
CBAR          52       3      54      55      0.      1.      0.
$ ... 25 like lines cut
CONM2         78      56       0    100.      .3      0.      0.                
CONM2         79      64       0    100.      .3      0.      0.                
CONM2         80      68       0    100.      .3      0.      0.                
CONM2         81      35       0    100.      .3      0.      0.                
CONM2         82      36       0    100.      .3      0.      0.                
CONM2         83      37       0    100.      .3      0.      0.                
CONM2         84      38       0    100.      .3      0.      0.                
CONM2         85       7       0    100.      .3      0.      0.                
CONM2         86      39       0    100.      .3      0.      0.                
CONM2         87      63       0    100.      .3      0.      0.                
CONM2         88      56       0    100.      .3      0.      0.                
CONM2         89      67       0    100.      .3      0.      0.                
CONM2         90      66       0    100.      .3      0.      0.                
CONM2         91      72       0    100.      .3      0.      0.                
CONM2         92      71       0    100.      .3      0.      0.                
CONM2         93      75       0    100.      .3      0.      0.                
RBE2          94      38  123456      87      92
RBE2          95      37  123456      88      93
RBE2          96      36  123456      89      94
RBE2          97      35  123456      90      95
RBE2          98       7  123456      91      96
CBAR          99       1      40      61      1.      0.      0.
CBAR         100       1      61      82      1.      0.      0.
CBAR         101       1      82      83      1.      0.      0.
CBAR         102       1      83      84      1.      0.      0.
CBAR         103       1      84       7      1.      0.      0.
CBAR         104       1      97      98      1.      0.      0.
CBAR         105       1      98      99      1.      0.      0.
CBAR         106       1      99     100      1.      0.      0.
CBAR         107       1     100     101      1.      0.      0.
CBAR         108       1     101       7      1.      0.      0.
RBE2         109     101  123456     123     114
RBE2         110     100  123456     120     115
RBE2         111      99  123456     119     116
RBE2         112      98  123456     118     117
RBE2         113      97  123456     122     121
RBE2         114      84  123456     108     107
RBE2         115      83  123456     109     106
RBE2         116      82  123456     110     105
RBE2         117      61  123456     111     104
RBE2         118      40  123456     112     103
CONM2        119      61       0    100.      .3      0.      0.                
CONM2        120      83       0    100.      .3      0.      0.                
CONM2        121     100       0    100.      .3      0.      0.                
CONM2        122      98       0    100.      .3      0.      0.                
CONM2        123       7       0    100.      .3      0.      0.                
$ Femap Aero Property 1 : panel
PAERO1         1                                                        
$ Femap Aero Property 2 : tail
PAERO1         2                                                        
$ Femap Aero Property 2000 : horpan
PAERO1      2000                                                        
$ Femap Aero Panel 1 : wing
CAERO1         1       1       0      15       4                       1+       
+           -.25     -5.      0.      1.    -.25      5.      0.      1.
$ Femap Aero Panel 1000 : vertail
CAERO1      1000       2       0       5       4                       1+       
+             4.      0.     1.5      1.      4.      0.      0.      1.
$ Femap Aero Panel 2000 : hortail
CAERO1      2000    2000       0      25       4                       1+       
+             4.     -2.     1.5      1.      4.      2.     1.5      1.
SET1           1       1       2       3       4       5       6       8+       
+              9      10      11      12      13      14      15      16+       
+             17      18      19      20      21      22      23      24+       
+             25      26      27      28      29      30      31      32+       
+             33      34                                                
$ Femap Aero Spline 1 : spline
SPLINE1        1       1       1      60       1      0.     IPS    BOTH
SET1           2       7      35      36      37      38      39      81+       
+             86      87      88      89      90      91      92      93+       
+             94      95      96                                        
$ Femap Aero Spline 2 : tailspline
SPLINE1        2    1000    1000    1019       2      0.     IPS    BOTH
SET1           3       7      40      61      82      83      84      91+       
+             96      97      98      99     100     101     103     104+       
+            105     106     107     108     109     110     111     112+       
+            114     115     116     117     118     119     120     121+       
+            122     123                                                
$ Femap Aero Spline 3 : hortailspline
SPLINE1        3    2000    2000    2099       3      0.     IPS    BOTH
ENDDATA
