INIT MASTER(S)
NASTRAN SYSTEM(319)=1
ID plane2,FEMAP
SOL AESTAT
CEND
  TITLE = rollstatic
  ECHO = NONE
  DISPLACEMENT(PRINT) = ALL
  SPCFORCE(PRINT) = ALL
  STRESS(PRINT,CORNER) = ALL
  APRES = All
  AEROF = All
  SPC = 5
  TRIM = 1
BEGIN BULK
$ ***************************************************************************
$   Written by : Femap
$   Version    : 2021.2.1
$   Translator : MSC Nastran
$   From Model : D:\repositoriesgithub\Nuova cartella\Aeroelasticity-Project\plane2.modfem
$   Date       : Sat Jan 13 11:15:40 2024
$   Output To  : D:\repositoriesgithub\Nuova cartella\Aeroelasticity-Project\
$ ***************************************************************************
$
PARAM,PRGPST,NO
PARAM,POST,-1
PARAM,OGEOM,NO
PARAM,AUTOSPC,YES
PARAM,GRDPNT,0
CORD2C         1       0      0.      0.      0.      0.      0.      1.+FEMAPC1
+FEMAPC1      1.      0.      1.        
CORD2S         2       0      0.      0.      0.      0.      0.      1.+FEMAPC2
+FEMAPC2      1.      0.      1.        
$ Femap Coordinate System 3 : leftail
CORD2R         3       0      .5     -5.      0.      .5     -5.      1.+       
+            1.5     -5.      0.        
$ Femap Coordinate System 4 : rightail
CORD2R         4       0      .5      5.      0.      .5      5.      1.+       
+            1.5      5.      0.        
PARAM,AUNITS,9.81
AESTAT         1    ROLL
AESTAT         2   URDD4
TRIM           1.0294118   61.25   URDD4      0.    Rail     -1.      0.+       
+           Lail      1.                                                
AEROS          0       0      1.     10.     10.       0       0
$ Femap Aero Control Surface 1 : leftail
AESURF         1    Lail       3       1                      1.     LDW+       
+            .25   .6667                                                
$ Femap Aero Control Surface 2 : rightail
AESURF         2    Rail       4       3                      1.     LDW+       
+            .25   .6667                                                
AELIST         1       4       8      12      16                        
AELIST         3      48      52      56      60                        
$ Femap Constraint Set 4 : rolldof
SUPORT         1       4
$ Femap Constraint Set 5 : rollclamp
SPC1           5   12356       1
$ Femap Property 1 : spar
$ Femap PropShape 1 : 2,0,0.2,0.6,0.,0.,0.,0.02
$ Femap PropMethod 1 : 2,0,1,0.3
$ Femap PropOrient 1 : 2,0,0.,1.,2.,3.,4.,-1.,0.,0.
PBAR           1       1   .0304.00125842.0885-45.9088-4      0.        +       
+            -.3     -.1      .3     -.1      .3      .1     -.3      .1+       
+       .7316875.1498734      0.
$ Femap Material 1 : al
MAT1           1  70000.             .33      0.      0.      0.        
GRID           1       0      0.      0.      0.       0
GRID           2       0      0.     -1.      0.       0
GRID           3       0      0.     -2.      0.       0
GRID           4       0      0.     -3.      0.       0
GRID           5       0      0.     -4.      0.       0
GRID           6       0      0.     -5.      0.       0
GRID           8       0      0.      1.      0.       0
GRID           9       0      0.      2.      0.       0
GRID          10       0      0.      3.      0.       0
GRID          11       0      0.      4.      0.       0
GRID          12       0      0.      5.      0.       0
GRID          13       0    -.25     -5.      0.       0
GRID          14       0    -.25     -4.      0.       0
GRID          15       0    -.25     -3.      0.       0
GRID          16       0    -.25     -2.      0.       0
GRID          17       0    -.25     -1.      0.       0
GRID          18       0    -.25      0.      0.       0
GRID          19       0    -.25      1.      0.       0
GRID          20       0    -.25      2.      0.       0
GRID          21       0    -.25      3.      0.       0
$ ... 13 like lines cut
CBAR           1       1       1       2      1.      0.      0.
CBAR           2       1       2       3      1.      0.      0.
CBAR           3       1       3       4      1.      0.      0.
CBAR           4       1       4       5      1.      0.      0.
CBAR           5       1       5       6      1.      0.      0.
CBAR           6       1       1       8      1.      0.      0.
CBAR           7       1       8       9      1.      0.      0.
CBAR           8       1       9      10      1.      0.      0.
CBAR           9       1      10      11      1.      0.      0.
CBAR          10       1      11      12      1.      0.      0.
RBE2          11       6  123456      13      34
RBE2          12       5  123456      14      33
RBE2          13       4  123456      15      32
RBE2          14       3  123456      16      31
RBE2          15       2  123456      17      30
RBE2          16       1  123456      18      29
RBE2          17       8  123456      19      28
RBE2          18       9  123456      20      27
RBE2          19      10  123456      26      21
RBE2          20      11  123456      22      25
RBE2          21      12  123456      23      24
CONM2         22       6       0    100.      .3      0.      0.                
CONM2         23       5       0    100.      .3      0.      0.                
CONM2         24       4       0    100.      .3      0.      0.                
CONM2         25       3       0    100.      .3      0.      0.                
CONM2         26       2       0    100.      .3      0.      0.                
CONM2         27       1       0    100.      .3      0.      0.                
CONM2         28       8       0    100.      .3      0.      0.                
CONM2         29       9       0    100.      .3      0.      0.                
CONM2         30      10       0    100.      .3      0.      0.                
CONM2         31      11       0    100.      .3      0.      0.                
CONM2         32      12       0    100.      .3      0.      0.                
$ Femap Aero Property 1 : panel
PAERO1         1                                                        
$ Femap Aero Panel 1 : wing
CAERO1         1       1       0      15       4                       1+       
+           -.25     -5.      0.      1.    -.25      5.      0.      1.
SET1           1       1       2       3       4       5       6       8+       
+              9      10      11      12      13      14      15      16+       
+             17      18      19      20      21      22      23      24+       
+             25      26      27      28      29      30      31      32+       
+             33      34                                                
$ Femap Aero Spline 1 : spline
SPLINE1        1       1       1      60       1      0.     IPS    BOTH
ENDDATA
