INIT MASTER(S)
NASTRAN OP2NEW=0,SYSTEM(319)=1
ID Aeroelasticit,FEMAP
SOL SESTATIC
CEND
  TITLE = Forza e momento
  ECHO = NONE
  DISPLACEMENT(PRINT) = ALL
  SPC = 1
  LOAD = 1

  SUBCASE = 1 $ forza su nodo 1
        SPC = 1
        LOAD = 1

  SUBCASE = 2 $ momento flettente su nodo 1
        SPC = 1
        LOAD = 2

  SUBCASE = 3 $ momento torcente su nodo 1
        SPC = 1
        LOAD = 3


BEGIN BULK
$ ***************************************************************************
$   Written by : Femap
$   Version    : 2021.2.1
$   Translator : MSC Nastran
$   From Model : C:\Users\andre\Documents\POLITECNICO\Aeroservoelasticity\Progetto\Aeroelasticity-Project\Longherone GENEL automatico\Travi di coda\Trave_di_coda.modfem
$   Date       : Thu Feb 22 12:00:34 2024
$   Output To  : C:\Users\andre\Documents\POLITECNICO\Aeroservoelasticity\Progetto\Aeroelasticity-Project\Longherone GENEL automatico\Travi di coda\
$ ***************************************************************************
$
PARAM,PRGPST,NO
PARAM,POST,-1
PARAM,OGEOM,NO
PARAM,AUTOSPC,YES
PARAM,K6ROT,100.
PARAM,GRDPNT,0
CORD2C         1       0      0.      0.      0.      0.      0.      1.+FEMAPC1
+FEMAPC1      1.      0.      1.        
CORD2S         2       0      0.      0.      0.      0.      0.      1.+FEMAPC2
+FEMAPC2      1.      0.      1.        
$ Femap Coordinate System 3 : X diretto come X del laminato
CORD2R         3       0      0.      0.      0.     -1.      0.      0.+       
+             0.      0.      1.        
$ Femap Load Set 1 : Forza
FORCE          1   12001       0      1.      0.      1.      0.
MOMENT         2   12001       0      1.      1.      0.      0.
MOMENT         3   12001       0      1.      0.      0.      1.
$ Femap Constraint Set 1 : Incastro
SPC1           1  123456       1
SPC1           1  123456       2
SPC1           1  123456       3
SPC1           1  123456       4
SPC1           1  123456       5
SPC1           1  123456       6
SPC1           1  123456       7
SPC1           1  123456       8
SPC1           1  123456       9
SPC1           1  123456      10
SPC1           1  123456      11
SPC1           1  123456      12
SPC1           1  123456      13
SPC1           1  123456    5149
SPC1           1  123456    5150
SPC1           1  123456    5151
SPC1           1  123456    5152
SPC1           1  123456    5153
SPC1           1  123456    5154
SPC1           1  123456    5155
$ ... 4 like lines cut
$ Femap Property 1 : Property Laminato
PCOMP          1              0.                                        +       
+              1  3.25-4      0.     YES       1  3.25-4      0.     YES+       
+              1  3.25-4      0.     YES
$ Femap Material 1 : CCRP 13-mil
MAT8           1  7.4+10  7.4+10     .05  4.55+9      0.      0.      0.+       
+             0.      0.      0.                                        +       
+                               
GRID           1       3      0.      0.  -8.5-3       0
GRID           2       3      0.   .0022 -8.21-3       0
GRID           3       3      0.  .00425-7.361-3       0
GRID           4       3      0..0060104 -6.01-3       0
GRID           5       3      0..0073612 -4.25-3       0
GRID           6       3      0..0082104  -2.2-3       0
GRID           7       3      0.   .0085      0.       0
GRID           8       3      0..0082104   .0022       0
GRID           9       3      0..0073612  .00425       0
GRID          10       3      0..0060104.0060104       0
GRID          11       3      0.  .00425.0073612       0
GRID          12       3      0.   .0022.0082104       0
GRID          13       3      0.      0.   .0085       0
GRID          14       3.0021975      0.   .0085       0
GRID          15       3.0043949      0.   .0085       0
GRID          16       3.0065924      0.   .0085       0
GRID          17       3.0087899      0.   .0085       0
GRID          18       3.0109873      0.   .0085       0
GRID          19       3.0131848      0.   .0085       0
GRID          20       3.0153823      0.   .0085       0
$ ... 9485 like lines cut
CQUAD4         1       1       1       2     815     814       3        
CQUAD4         2       1       2       3     816     815       3        
CQUAD4         3       1       3       4     817     816       3        
CQUAD4         4       1       4       5     818     817       3        
CQUAD4         5       1       5       6     819     818       3        
CQUAD4         6       1       6       7     820     819       3        
CQUAD4         7       1       7       8     821     820       3        
CQUAD4         8       1       8       9     822     821       3        
CQUAD4         9       1       9      10     823     822       3        
CQUAD4        10       1      10      11     824     823       3        
CQUAD4        11       1      11      12     825     824       3        
CQUAD4        12       1      12      13      14     825       3        
CQUAD4        13       1     814     815     826     813       3        
CQUAD4        14       1     815     816     827     826       3        
CQUAD4        15       1     816     817     828     827       3        
CQUAD4        16       1     817     818     829     828       3        
CQUAD4        17       1     818     819     830     829       3        
CQUAD4        18       1     819     820     831     830       3        
CQUAD4        19       1     820     821     832     831       3        
CQUAD4        20       1     821     822     833     832       3        
$ ... 9460 like lines cut
RBE2        9481   12001  123456     408     420     414    5165
ENDDATA
