INIT MASTER(S)
NASTRAN SYSTEM(319)=1
ID nastranexample,FEMAP
SOL AESTAT
CEND
  TITLE = test
  ECHO = NONE
  DISPLACEMENT(PRINT) = ALL
  SPCFORCE(PRINT) = ALL
  STRESS(PRINT,CORNER) = ALL
  APRES = All
  AEROF = All
  SPC = 1
  TRIM = 1
BEGIN BULK
$ ***************************************************************************
$   Written by : Femap
$   Version    : 2021.2.1
$   Translator : MSC Nastran
$   From Model : D:\repositoriesgithub\Nuova cartella\Aeroelasticity-Project\nastranexample.modfem
$   Date       : Sun Jan 14 15:25:32 2024
$   Output To  : D:\repositoriesgithub\Nuova cartella\Aeroelasticity-Project\
$ ***************************************************************************
$
PARAM,PRGPST,NO
PARAM,POST,-1
PARAM,OGEOM,NO
PARAM,AUTOSPC,YES
PARAM,GRDPNT,90
PARAM,WTMASS,.031081
CORD2C         1       0      0.      0.      0.      0.      0.      1.+FEMAPC1
+FEMAPC1      1.      0.      1.        
CORD2S         2       0      0.      0.      0.      0.      0.      1.+FEMAPC2
+FEMAPC2      1.      0.      1.        
$ Femap Coordinate System 10 : aerosys
CORD2R        10       0    12.5      0.      0.    12.5      0.      1.+       
+           13.5      0.      0.        
$ Femap Coordinate System 20 : splinesys
CORD2R        20       0     30.      0.      0.     30.      0.      1.+       
+       30.86603.5000002      0.        
$ Femap Coordinate System 100 : stabsys
CORD2R       100       0     15.      0.      0.     15.      0.     -1.+       
+            14.      0.      0.        
PARAM,AUNITS,.031081
AESTAT         1  ANGLEA
AESTAT         2   PITCH
AESTAT         3   URDD3
AESTAT         4   URDD5
TRIM           1      .9     40.   PITCH      0.   URDD3     -1.      0.+       
+          URDD5      0.                                                
AEROS         10     100     10.     40.    200.       1       0
$ Femap Aero Control Surface 505 : canard
AESURF       505    ELEV      10       2                             LDW+       
+                                                                       
AELIST         2    1000    1001    1002    1003    1004    1005    1006+       
+           1007                                                        
$ Femap Constraint Set 1 : constraints
SPC1           1    1246      90
SPC1           1     246      97
SPC1           1     246      98
SPC1           1     246      99
SPC1           1     246     100
$ Femap Constraint Set 2 : support
SUPORT        90      35
$ Femap Property 100 : bar
PBAR         100       1      2. .173611     .15      .5      0.        +       
+             1.      1.      1.     -1.     -1.      1.     -1.     -1.+       
+                             0.
$ Femap Property 101 : wingbar
PBAR         101       1     1.5 .173611      2. .462963      0.        +       
+             .5      3.      .5     -3.     -.5      3.     -.5     -3.+       
+                             0.
$ Femap Material 1 : material1
MAT1           1  1.44+9   5.4+8              0.      0.      0.        
GRID          90       0     15.      0.      0.       0
GRID          97       0      0.      0.      0.       0
GRID          98       0     10.      0.      0.       0
GRID          99       0     20.      0.      0.       0
GRID         100       0     30.      0.      0.       0
GRID         110       027.11325      5.      0.       0
GRID         111       024.61325      5.      0.       0
GRID         112       029.61325      5.      0.       0
GRID         120       021.33975     15.      0.       0
GRID         121       018.83975     15.      0.       0
GRID         122       023.83975     15.      0.       0
CONM2         97      97       0   1500.      0.      0.      0.                
CONM2         98      98       0   1500.      0.      0.      0.                
CONM2         99      99       0   1500.      0.      0.      0.                
CBAR         100     100      90      99      0.      0.      1.
CBAR         101     100      97      98      0.      0.      1.
CBAR         102     100      98      90      0.      0.      1.
CBAR         103     100      99     100      0.      0.      1.
CONM2        104     100       0   1500.      0.      0.      0.                
CBAR         110     101     100     110      0.      0.      1.
RBE2         111     110  123456     111
RBE2         112     110  123456     112
CBAR         120     101     110     120      0.      0.      1.
RBE2         121     120  123456     121
RBE2         122     120  123456     122
CONM2        311     111       0    600.      0.      0.      0.                
CONM2        312     112       0    400.      0.      0.      0.                
CONM2        321     121       0    600.      0.      0.      0.                
CONM2        322     122       0    400.      0.      0.      0.                
$ Femap Aero Property 1000 : wingpan
PAERO1      1000                                                        
$ Femap Aero Panel 1000 : canardpanel
CAERO1      1000    1000       0       2       4                       1+       
+            10.      0.      0.     10.     10.      5.      0.     10.
$ Femap Aero Panel 1100 : wing
CAERO1      1100    1000       0       8       4                       1+       
+            25.      0.      0.     10.13.45299     20.      0.     10.
SET1        1000      98      99                                        
$ Femap Aero Spline 1501 : Aero Spline
SPLINE2     1501    1000    1000    1007    1000      0.      1.      10+       
+             1.     -1.            BOTH                                
SET1        1100      99     100     111     112     121     122        
$ Femap Aero Spline 1601 : wingspline
SPLINE2     1601    1100    1100    1131    1100      0.      1.      20+       
+            -1.     -1.            BOTH                                
ENDDATA
